979
go_50x30
C 0.0 0.0 0.0
C 1.225252741274224 -0.7074 0.0
C 2.450505482548448 0.0 0.0
C 3.675758223822672 -0.7074 0.0
C 4.901010965096896 0.0 0.0
C 6.12626370637112 -0.7074 0.0
C 7.351516447645344 0.0 0.0
C 8.576769188919569 -0.7074 0.0
C 9.802021930193792 0.0 0.0
C 11.027274671468016 -0.7074 0.0
C 12.25252741274224 0.0 0.0
C 13.477780154016463 -0.7074 0.0
C 14.703032895290686 0.0 0.0
C 15.928285636564912 -0.7074 0.0
C 17.153538377839137 0.0 0.0
C 18.378791119113362 -0.7074 0.0
C 19.604043860387584 0.0 0.0
C 20.82929660166181 -0.7074 0.0
C 22.05454934293603 0.0 0.0
C 23.279802084210257 -0.7074 0.0
C 24.50505482548448 0.0 0.0
C 25.730307566758704 -0.7074 0.0
C 26.955560308032926 0.0 0.0
C 28.180813049307154 -0.7074 0.0
C 29.406065790581376 0.0 0.0
C 30.6313185318556 -0.7074 0.0
C 31.856571273129823 0.0 0.0
C 33.08182401440405 -0.7074 0.0
C 34.307076755678274 0.0 0.0
C 35.5323294969525 -0.7074 0.0
C 36.757582238226725 0.0 0.0
C 37.98283497950094 -0.7074 0.0
C 39.20808772077517 0.0 0.0
C 40.433340462049394 -0.7074 0.0
C 41.65859320332362 0.0 0.0
C 42.883845944597844 -0.7074 0.0
C 44.10909868587207 0.0 0.0
C 45.33435142714629 -0.7074 0.0
C 46.55960416842051 0.0 0.0
C 0.0 1.4148 0.0
C 1.225252741274224 2.1222000000000003 0.0
C 2.450505482548448 1.4148 0.0
C 3.675758223822672 2.1222000000000003 0.0
C 4.901010965096896 1.4148 0.0
C 6.12626370637112 2.1222000000000003 0.0
C 7.351516447645344 1.4148 0.0
C 8.576769188919569 2.1222000000000003 0.0
C 9.802021930193792 1.4148 0.0
C 11.027274671468016 2.1222000000000003 0.0
C 12.25252741274224 1.4148 0.0
C 13.477780154016463 2.1222000000000003 0.0
C 14.703032895290686 1.4148 0.0
C 15.928285636564912 2.1222000000000003 0.0
C 17.153538377839137 1.4148 0.0
C 18.378791119113362 2.1222000000000003 0.0
C 19.604043860387584 1.4148 0.0
C 20.82929660166181 2.1222000000000003 0.0
C 22.05454934293603 1.4148 0.0
C 23.279802084210257 2.1222000000000003 0.0
C 24.50505482548448 1.4148 0.0
C 25.730307566758704 2.1222000000000003 0.0
C 26.955560308032926 1.4148 0.0
C 28.180813049307154 2.1222000000000003 0.0
C 29.406065790581376 1.4148 0.0
C 30.6313185318556 2.1222000000000003 0.0
C 31.856571273129823 1.4148 0.0
C 33.08182401440405 2.1222000000000003 0.0
C 34.307076755678274 1.4148 0.0
C 35.5323294969525 2.1222000000000003 0.0
C 36.757582238226725 1.4148 0.0
C 37.98283497950094 2.1222000000000003 0.0
C 39.20808772077517 1.4148 0.0
C 40.433340462049394 2.1222000000000003 0.0
C 41.65859320332362 1.4148 0.0
C 42.883845944597844 2.1222000000000003 0.0
C 44.10909868587207 1.4148 0.0
C 45.33435142714629 2.1222000000000003 0.0
C 46.55960416842051 1.4148 0.0
C 0.0 4.244400000000001 0.0
C 1.225252741274224 3.537000000000001 0.0
C 2.450505482548448 4.244400000000001 0.0
C 3.675758223822672 3.537000000000001 0.0
C 4.901010965096896 4.244400000000001 0.0
C 6.12626370637112 3.537000000000001 0.0
C 7.351516447645344 4.244400000000001 0.0
C 8.576769188919569 3.537000000000001 0.0
C 9.802021930193792 4.244400000000001 0.0
C 11.027274671468016 3.537000000000001 0.0
C 12.25252741274224 4.244400000000001 0.0
C 13.477780154016463 3.537000000000001 0.0
C 14.703032895290686 4.244400000000001 0.0
C 15.928285636564912 3.537000000000001 0.0
C 17.153538377839137 4.244400000000001 0.0
C 18.378791119113362 3.537000000000001 0.0
C 19.604043860387584 4.244400000000001 0.0
C 20.82929660166181 3.537000000000001 0.0
C 22.05454934293603 4.244400000000001 0.0
C 23.279802084210257 3.537000000000001 0.0
C 24.50505482548448 4.244400000000001 0.0
C 25.730307566758704 3.537000000000001 0.0
C 26.955560308032926 4.244400000000001 0.0
C 28.180813049307154 3.537000000000001 0.0
C 29.406065790581376 4.244400000000001 0.0
C 30.6313185318556 3.537000000000001 0.0
C 31.856571273129823 4.244400000000001 0.0
C 33.08182401440405 3.537000000000001 0.0
C 34.307076755678274 4.244400000000001 0.0
C 35.5323294969525 3.537000000000001 0.0
C 36.757582238226725 4.244400000000001 0.0
C 37.98283497950094 3.537000000000001 0.0
C 39.20808772077517 4.244400000000001 0.0
C 40.433340462049394 3.537000000000001 0.0
C 41.65859320332362 4.244400000000001 0.0
C 42.883845944597844 3.537000000000001 0.0
C 44.10909868587207 4.244400000000001 0.0
C 45.33435142714629 3.537000000000001 0.0
C 46.55960416842051 4.244400000000001 0.0
C 0.0 5.6592 0.0
C 1.225252741274224 6.3666 0.0
C 2.450505482548448 5.6592 0.0
C 3.675758223822672 6.3666 0.0
C 4.901010965096896 5.6592 0.0
C 6.12626370637112 6.3666 0.0
C 7.351516447645344 5.6592 0.0
C 8.576769188919569 6.3666 0.0
C 9.802021930193792 5.6592 0.0
C 11.027274671468016 6.3666 0.0
C 12.25252741274224 5.6592 0.0
C 13.477780154016463 6.3666 0.0
C 14.703032895290686 5.6592 0.0
C 15.928285636564912 6.3666 0.0
C 17.153538377839137 5.6592 0.0
C 18.378791119113362 6.3666 0.0
C 19.604043860387584 5.6592 0.0
C 20.82929660166181 6.3666 0.0
C 22.05454934293603 5.6592 0.0
C 23.279802084210257 6.3666 0.0
C 24.50505482548448 5.6592 0.0
C 25.730307566758704 6.3666 0.0
C 26.955560308032926 5.6592 0.0
C 28.180813049307154 6.3666 0.0
C 29.406065790581376 5.6592 0.0
C 30.6313185318556 6.3666 0.0
C 31.856571273129823 5.6592 0.0
C 33.08182401440405 6.3666 0.0
C 34.307076755678274 5.6592 0.0
C 35.5323294969525 6.3666 0.0
C 36.757582238226725 5.6592 0.0
C 37.98283497950094 6.3666 0.0
C 39.20808772077517 5.6592 0.0
C 40.433340462049394 6.3666 0.0
C 41.65859320332362 5.6592 0.0
C 42.883845944597844 6.3666 0.0
C 44.10909868587207 5.6592 0.0
C 45.33435142714629 6.3666 0.0
C 46.55960416842051 5.6592 0.0
C 0.0 8.488800000000001 0.0
C 1.225252741274224 7.781400000000001 0.0
C 2.450505482548448 8.488800000000001 0.0
C 3.675758223822672 7.781400000000001 0.0
C 4.901010965096896 8.488800000000001 0.0
C 6.12626370637112 7.781400000000001 0.0
C 7.351516447645344 8.488800000000001 0.0
C 8.576769188919569 7.781400000000001 0.0
C 9.802021930193792 8.488800000000001 0.0
C 11.027274671468016 7.781400000000001 0.0
C 12.25252741274224 8.488800000000001 0.0
C 13.477780154016463 7.781400000000001 0.0
C 14.703032895290686 8.488800000000001 0.0
C 15.928285636564912 7.781400000000001 0.0
C 17.153538377839137 8.488800000000001 0.0
C 18.378791119113362 7.781400000000001 0.0
C 19.604043860387584 8.488800000000001 0.0
C 20.82929660166181 7.781400000000001 0.0
C 22.05454934293603 8.488800000000001 0.0
C 23.279802084210257 7.781400000000001 0.0
C 24.50505482548448 8.488800000000001 0.0
C 25.730307566758704 7.781400000000001 0.0
C 26.955560308032926 8.488800000000001 0.0
C 28.180813049307154 7.781400000000001 0.0
C 29.406065790581376 8.488800000000001 0.0
C 30.6313185318556 7.781400000000001 0.0
C 31.856571273129823 8.488800000000001 0.0
C 33.08182401440405 7.781400000000001 0.0
C 34.307076755678274 8.488800000000001 0.0
C 35.5323294969525 7.781400000000001 0.0
C 36.757582238226725 8.488800000000001 0.0
C 37.98283497950094 7.781400000000001 0.0
C 39.20808772077517 8.488800000000001 0.0
C 40.433340462049394 7.781400000000001 0.0
C 41.65859320332362 8.488800000000001 0.0
C 42.883845944597844 7.781400000000001 0.0
C 44.10909868587207 8.488800000000001 0.0
C 45.33435142714629 7.781400000000001 0.0
C 46.55960416842051 8.488800000000001 0.0
C 0.0 9.9036 0.0
C 1.225252741274224 10.611 0.0
C 2.450505482548448 9.9036 0.0
C 3.675758223822672 10.611 0.0
C 4.901010965096896 9.9036 0.0
C 6.12626370637112 10.611 0.0
C 7.351516447645344 9.9036 0.0
C 8.576769188919569 10.611 0.0
C 9.802021930193792 9.9036 0.0
C 11.027274671468016 10.611 0.0
C 12.25252741274224 9.9036 0.0
C 13.477780154016463 10.611 0.0
C 14.703032895290686 9.9036 0.0
C 15.928285636564912 10.611 0.0
C 17.153538377839137 9.9036 0.0
C 18.378791119113362 10.611 0.0
C 19.604043860387584 9.9036 0.0
C 20.82929660166181 10.611 0.0
C 22.05454934293603 9.9036 0.0
C 23.279802084210257 10.611 0.0
C 24.50505482548448 9.9036 0.0
C 25.730307566758704 10.611 0.0
C 26.955560308032926 9.9036 0.0
C 28.180813049307154 10.611 0.0
C 29.406065790581376 9.9036 0.0
C 30.6313185318556 10.611 0.0
C 31.856571273129823 9.9036 0.0
C 33.08182401440405 10.611 0.0
C 34.307076755678274 9.9036 0.0
C 35.5323294969525 10.611 0.0
C 36.757582238226725 9.9036 0.0
C 37.98283497950094 10.611 0.0
C 39.20808772077517 9.9036 0.0
C 40.433340462049394 10.611 0.0
C 41.65859320332362 9.9036 0.0
C 42.883845944597844 10.611 0.0
C 44.10909868587207 9.9036 0.0
C 45.33435142714629 10.611 0.0
C 46.55960416842051 9.9036 0.0
C 0.0 12.733200000000002 0.0
C 1.225252741274224 12.025800000000002 0.0
C 2.450505482548448 12.733200000000002 0.0
C 3.675758223822672 12.025800000000002 0.0
C 4.901010965096896 12.733200000000002 0.0
C 6.12626370637112 12.025800000000002 0.0
C 7.351516447645344 12.733200000000002 0.0
C 8.576769188919569 12.025800000000002 0.0
C 9.802021930193792 12.733200000000002 0.0
C 11.027274671468016 12.025800000000002 0.0
C 12.25252741274224 12.733200000000002 0.0
C 13.477780154016463 12.025800000000002 0.0
C 14.703032895290686 12.733200000000002 0.0
C 15.928285636564912 12.025800000000002 0.0
C 17.153538377839137 12.733200000000002 0.0
C 18.378791119113362 12.025800000000002 0.0
C 19.604043860387584 12.733200000000002 0.0
C 20.82929660166181 12.025800000000002 0.0
C 22.05454934293603 12.733200000000002 0.0
C 23.279802084210257 12.025800000000002 0.0
C 24.50505482548448 12.733200000000002 0.0
C 25.730307566758704 12.025800000000002 0.0
C 26.955560308032926 12.733200000000002 0.0
C 28.180813049307154 12.025800000000002 0.0
C 29.406065790581376 12.733200000000002 0.0
C 30.6313185318556 12.025800000000002 0.0
C 31.856571273129823 12.733200000000002 0.0
C 33.08182401440405 12.025800000000002 0.0
C 34.307076755678274 12.733200000000002 0.0
C 35.5323294969525 12.025800000000002 0.0
C 36.757582238226725 12.733200000000002 0.0
C 37.98283497950094 12.025800000000002 0.0
C 39.20808772077517 12.733200000000002 0.0
C 40.433340462049394 12.025800000000002 0.0
C 41.65859320332362 12.733200000000002 0.0
C 42.883845944597844 12.025800000000002 0.0
C 44.10909868587207 12.733200000000002 0.0
C 45.33435142714629 12.025800000000002 0.0
C 46.55960416842051 12.733200000000002 0.0
C 0.0 14.148 0.0
C 1.225252741274224 14.8554 0.0
C 2.450505482548448 14.148 0.0
C 3.675758223822672 14.8554 0.0
C 4.901010965096896 14.148 0.0
C 6.12626370637112 14.8554 0.0
C 7.351516447645344 14.148 0.0
C 8.576769188919569 14.8554 0.0
C 9.802021930193792 14.148 0.0
C 11.027274671468016 14.8554 0.0
C 12.25252741274224 14.148 0.0
C 13.477780154016463 14.8554 0.0
C 14.703032895290686 14.148 0.0
C 15.928285636564912 14.8554 0.0
C 17.153538377839137 14.148 0.0
C 18.378791119113362 14.8554 0.0
C 19.604043860387584 14.148 0.0
C 20.82929660166181 14.8554 0.0
C 22.05454934293603 14.148 0.0
C 23.279802084210257 14.8554 0.0
C 24.50505482548448 14.148 0.0
C 25.730307566758704 14.8554 0.0
C 26.955560308032926 14.148 0.0
C 28.180813049307154 14.8554 0.0
C 29.406065790581376 14.148 0.0
C 30.6313185318556 14.8554 0.0
C 31.856571273129823 14.148 0.0
C 33.08182401440405 14.8554 0.0
C 34.307076755678274 14.148 0.0
C 35.5323294969525 14.8554 0.0
C 36.757582238226725 14.148 0.0
C 37.98283497950094 14.8554 0.0
C 39.20808772077517 14.148 0.0
C 40.433340462049394 14.8554 0.0
C 41.65859320332362 14.148 0.0
C 42.883845944597844 14.8554 0.0
C 44.10909868587207 14.148 0.0
C 45.33435142714629 14.8554 0.0
C 46.55960416842051 14.148 0.0
C 0.0 16.977600000000002 0.0
C 1.225252741274224 16.270200000000003 0.0
C 2.450505482548448 16.977600000000002 0.0
C 3.675758223822672 16.270200000000003 0.0
C 4.901010965096896 16.977600000000002 0.0
C 6.12626370637112 16.270200000000003 0.0
C 7.351516447645344 16.977600000000002 0.0
C 8.576769188919569 16.270200000000003 0.0
C 9.802021930193792 16.977600000000002 0.0
C 11.027274671468016 16.270200000000003 0.0
C 12.25252741274224 16.977600000000002 0.0
C 13.477780154016463 16.270200000000003 0.0
C 14.703032895290686 16.977600000000002 0.0
C 15.928285636564912 16.270200000000003 0.0
C 17.153538377839137 16.977600000000002 0.0
C 18.378791119113362 16.270200000000003 0.0
C 19.604043860387584 16.977600000000002 0.0
C 20.82929660166181 16.270200000000003 0.0
C 22.05454934293603 16.977600000000002 0.0
C 23.279802084210257 16.270200000000003 0.0
C 24.50505482548448 16.977600000000002 0.0
C 25.730307566758704 16.270200000000003 0.0
C 26.955560308032926 16.977600000000002 0.0
C 28.180813049307154 16.270200000000003 0.0
C 29.406065790581376 16.977600000000002 0.0
C 30.6313185318556 16.270200000000003 0.0
C 31.856571273129823 16.977600000000002 0.0
C 33.08182401440405 16.270200000000003 0.0
C 34.307076755678274 16.977600000000002 0.0
C 35.5323294969525 16.270200000000003 0.0
C 36.757582238226725 16.977600000000002 0.0
C 37.98283497950094 16.270200000000003 0.0
C 39.20808772077517 16.977600000000002 0.0
C 40.433340462049394 16.270200000000003 0.0
C 41.65859320332362 16.977600000000002 0.0
C 42.883845944597844 16.270200000000003 0.0
C 44.10909868587207 16.977600000000002 0.0
C 45.33435142714629 16.270200000000003 0.0
C 46.55960416842051 16.977600000000002 0.0
C 0.0 18.392400000000002 0.0
C 1.225252741274224 19.099800000000002 0.0
C 2.450505482548448 18.392400000000002 0.0
C 3.675758223822672 19.099800000000002 0.0
C 4.901010965096896 18.392400000000002 0.0
C 6.12626370637112 19.099800000000002 0.0
C 7.351516447645344 18.392400000000002 0.0
C 8.576769188919569 19.099800000000002 0.0
C 9.802021930193792 18.392400000000002 0.0
C 11.027274671468016 19.099800000000002 0.0
C 12.25252741274224 18.392400000000002 0.0
C 13.477780154016463 19.099800000000002 0.0
C 14.703032895290686 18.392400000000002 0.0
C 15.928285636564912 19.099800000000002 0.0
C 17.153538377839137 18.392400000000002 0.0
C 18.378791119113362 19.099800000000002 0.0
C 19.604043860387584 18.392400000000002 0.0
C 20.82929660166181 19.099800000000002 0.0
C 22.05454934293603 18.392400000000002 0.0
C 23.279802084210257 19.099800000000002 0.0
C 24.50505482548448 18.392400000000002 0.0
C 25.730307566758704 19.099800000000002 0.0
C 26.955560308032926 18.392400000000002 0.0
C 28.180813049307154 19.099800000000002 0.0
C 29.406065790581376 18.392400000000002 0.0
C 30.6313185318556 19.099800000000002 0.0
C 31.856571273129823 18.392400000000002 0.0
C 33.08182401440405 19.099800000000002 0.0
C 34.307076755678274 18.392400000000002 0.0
C 35.5323294969525 19.099800000000002 0.0
C 36.757582238226725 18.392400000000002 0.0
C 37.98283497950094 19.099800000000002 0.0
C 39.20808772077517 18.392400000000002 0.0
C 40.433340462049394 19.099800000000002 0.0
C 41.65859320332362 18.392400000000002 0.0
C 42.883845944597844 19.099800000000002 0.0
C 44.10909868587207 18.392400000000002 0.0
C 45.33435142714629 19.099800000000002 0.0
C 46.55960416842051 18.392400000000002 0.0
C 0.0 21.222 0.0
C 1.225252741274224 20.5146 0.0
C 2.450505482548448 21.222 0.0
C 3.675758223822672 20.5146 0.0
C 4.901010965096896 21.222 0.0
C 6.12626370637112 20.5146 0.0
C 7.351516447645344 21.222 0.0
C 8.576769188919569 20.5146 0.0
C 9.802021930193792 21.222 0.0
C 11.027274671468016 20.5146 0.0
C 12.25252741274224 21.222 0.0
C 13.477780154016463 20.5146 0.0
C 14.703032895290686 21.222 0.0
C 15.928285636564912 20.5146 0.0
C 17.153538377839137 21.222 0.0
C 18.378791119113362 20.5146 0.0
C 19.604043860387584 21.222 0.0
C 20.82929660166181 20.5146 0.0
C 22.05454934293603 21.222 0.0
C 23.279802084210257 20.5146 0.0
C 24.50505482548448 21.222 0.0
C 25.730307566758704 20.5146 0.0
C 26.955560308032926 21.222 0.0
C 28.180813049307154 20.5146 0.0
C 29.406065790581376 21.222 0.0
C 30.6313185318556 20.5146 0.0
C 31.856571273129823 21.222 0.0
C 33.08182401440405 20.5146 0.0
C 34.307076755678274 21.222 0.0
C 35.5323294969525 20.5146 0.0
C 36.757582238226725 21.222 0.0
C 37.98283497950094 20.5146 0.0
C 39.20808772077517 21.222 0.0
C 40.433340462049394 20.5146 0.0
C 41.65859320332362 21.222 0.0
C 42.883845944597844 20.5146 0.0
C 44.10909868587207 21.222 0.0
C 45.33435142714629 20.5146 0.0
C 46.55960416842051 21.222 0.0
C 0.0 22.6368 0.0
C 1.225252741274224 23.3442 0.0
C 2.450505482548448 22.6368 0.0
C 3.675758223822672 23.3442 0.0
C 4.901010965096896 22.6368 0.0
C 6.12626370637112 23.3442 0.0
C 7.351516447645344 22.6368 0.0
C 8.576769188919569 23.3442 0.0
C 9.802021930193792 22.6368 0.0
C 11.027274671468016 23.3442 0.0
C 12.25252741274224 22.6368 0.0
C 13.477780154016463 23.3442 0.0
C 14.703032895290686 22.6368 0.0
C 15.928285636564912 23.3442 0.0
C 17.153538377839137 22.6368 0.0
C 18.378791119113362 23.3442 0.0
C 19.604043860387584 22.6368 0.0
C 20.82929660166181 23.3442 0.0
C 22.05454934293603 22.6368 0.0
C 23.279802084210257 23.3442 0.0
C 24.50505482548448 22.6368 0.0
C 25.730307566758704 23.3442 0.0
C 26.955560308032926 22.6368 0.0
C 28.180813049307154 23.3442 0.0
C 29.406065790581376 22.6368 0.0
C 30.6313185318556 23.3442 0.0
C 31.856571273129823 22.6368 0.0
C 33.08182401440405 23.3442 0.0
C 34.307076755678274 22.6368 0.0
C 35.5323294969525 23.3442 0.0
C 36.757582238226725 22.6368 0.0
C 37.98283497950094 23.3442 0.0
C 39.20808772077517 22.6368 0.0
C 40.433340462049394 23.3442 0.0
C 41.65859320332362 22.6368 0.0
C 42.883845944597844 23.3442 0.0
C 44.10909868587207 22.6368 0.0
C 45.33435142714629 23.3442 0.0
C 46.55960416842051 22.6368 0.0
C 0.0 25.466400000000004 0.0
C 1.225252741274224 24.759000000000004 0.0
C 2.450505482548448 25.466400000000004 0.0
C 3.675758223822672 24.759000000000004 0.0
C 4.901010965096896 25.466400000000004 0.0
C 6.12626370637112 24.759000000000004 0.0
C 7.351516447645344 25.466400000000004 0.0
C 8.576769188919569 24.759000000000004 0.0
C 9.802021930193792 25.466400000000004 0.0
C 11.027274671468016 24.759000000000004 0.0
C 12.25252741274224 25.466400000000004 0.0
C 13.477780154016463 24.759000000000004 0.0
C 14.703032895290686 25.466400000000004 0.0
C 15.928285636564912 24.759000000000004 0.0
C 17.153538377839137 25.466400000000004 0.0
C 18.378791119113362 24.759000000000004 0.0
C 19.604043860387584 25.466400000000004 0.0
C 20.82929660166181 24.759000000000004 0.0
C 22.05454934293603 25.466400000000004 0.0
C 23.279802084210257 24.759000000000004 0.0
C 24.50505482548448 25.466400000000004 0.0
C 25.730307566758704 24.759000000000004 0.0
C 26.955560308032926 25.466400000000004 0.0
C 28.180813049307154 24.759000000000004 0.0
C 29.406065790581376 25.466400000000004 0.0
C 30.6313185318556 24.759000000000004 0.0
C 31.856571273129823 25.466400000000004 0.0
C 33.08182401440405 24.759000000000004 0.0
C 34.307076755678274 25.466400000000004 0.0
C 35.5323294969525 24.759000000000004 0.0
C 36.757582238226725 25.466400000000004 0.0
C 37.98283497950094 24.759000000000004 0.0
C 39.20808772077517 25.466400000000004 0.0
C 40.433340462049394 24.759000000000004 0.0
C 41.65859320332362 25.466400000000004 0.0
C 42.883845944597844 24.759000000000004 0.0
C 44.10909868587207 25.466400000000004 0.0
C 45.33435142714629 24.759000000000004 0.0
C 46.55960416842051 25.466400000000004 0.0
C 0.0 26.8812 0.0
C 1.225252741274224 27.5886 0.0
C 2.450505482548448 26.8812 0.0
C 3.675758223822672 27.5886 0.0
C 4.901010965096896 26.8812 0.0
C 6.12626370637112 27.5886 0.0
C 7.351516447645344 26.8812 0.0
C 8.576769188919569 27.5886 0.0
C 9.802021930193792 26.8812 0.0
C 11.027274671468016 27.5886 0.0
C 12.25252741274224 26.8812 0.0
C 13.477780154016463 27.5886 0.0
C 14.703032895290686 26.8812 0.0
C 15.928285636564912 27.5886 0.0
C 17.153538377839137 26.8812 0.0
C 18.378791119113362 27.5886 0.0
C 19.604043860387584 26.8812 0.0
C 20.82929660166181 27.5886 0.0
C 22.05454934293603 26.8812 0.0
C 23.279802084210257 27.5886 0.0
C 24.50505482548448 26.8812 0.0
C 25.730307566758704 27.5886 0.0
C 26.955560308032926 26.8812 0.0
C 28.180813049307154 27.5886 0.0
C 29.406065790581376 26.8812 0.0
C 30.6313185318556 27.5886 0.0
C 31.856571273129823 26.8812 0.0
C 33.08182401440405 27.5886 0.0
C 34.307076755678274 26.8812 0.0
C 35.5323294969525 27.5886 0.0
C 36.757582238226725 26.8812 0.0
C 37.98283497950094 27.5886 0.0
C 39.20808772077517 26.8812 0.0
C 40.433340462049394 27.5886 0.0
C 41.65859320332362 26.8812 0.0
C 42.883845944597844 27.5886 0.0
C 44.10909868587207 26.8812 0.0
C 45.33435142714629 27.5886 0.0
C 46.55960416842051 26.8812 0.0
C 1.225252741274224 -2.1074 0.0
C 3.675758223822672 -2.1074 0.0
H 6.12626370637112 -1.7844 0.0
H 8.576769188919569 -1.7844 0.0
H 11.027274671468016 -1.7844 0.0
O 13.477780154016463 -2.1074 0.0
H 15.928285636564912 -1.7844 0.0
O 18.378791119113362 -2.1074 0.0
H 20.82929660166181 -1.7844 0.0
H 23.279802084210257 -1.7844 0.0
H 25.730307566758704 -1.7844 0.0
H 28.180813049307154 -1.7844 0.0
H 30.6313185318556 -1.7844 0.0
O 33.08182401440405 -2.1074 0.0
H 35.5323294969525 -1.7844 0.0
H 37.98283497950094 -1.7844 0.0
O 40.433340462049394 -2.1074 0.0
H 42.883845944597844 -1.7844 0.0
H 45.33435142714629 -1.7844 0.0
O 1.225252741274224 28.988599999999998 0.0
O 3.675758223822672 28.988599999999998 0.0
H 6.12626370637112 28.665599999999998 0.0
H 8.576769188919569 28.665599999999998 0.0
C 11.027274671468016 28.988599999999998 0.0
H 13.477780154016463 28.665599999999998 0.0
H 15.928285636564912 28.665599999999998 0.0
C 18.378791119113362 28.988599999999998 0.0
C 20.82929660166181 28.988599999999998 0.0
O 23.279802084210257 28.988599999999998 0.0
H 25.730307566758704 28.665599999999998 0.0
O 28.180813049307154 28.988599999999998 0.0
H 30.6313185318556 28.665599999999998 0.0
H 33.08182401440405 28.665599999999998 0.0
H 35.5323294969525 28.665599999999998 0.0
H 37.98283497950094 28.665599999999998 0.0
H 40.433340462049394 28.665599999999998 0.0
O 42.883845944597844 28.988599999999998 0.0
H 45.33435142714629 28.665599999999998 0.0
C -1.2124355652982142 -0.7 0.0
H -0.9327093598758405 1.9533 0.0
H 47.49231352829636 -0.5385 0.0
H 47.49231352829636 1.9533 0.0
H -0.9327093598758405 3.7059000000000006 0.0
H -0.9327093598758405 6.1977 0.0
H 47.49231352829636 3.7059000000000006 0.0
O 47.77203973371873 6.359199999999999 0.0
H -0.9327093598758405 7.950300000000001 0.0
H -0.9327093598758405 10.4421 0.0
O 47.77203973371873 7.788800000000003 0.0
H 47.49231352829636 10.4421 0.0
O -1.2124355652982137 12.0332 0.0
O -1.2124355652982146 14.847999999999999 0.0
O 47.77203973371873 12.033200000000003 0.0
O 47.77203973371873 14.847999999999997 0.0
H -0.9327093598758405 16.439100000000003 0.0
O -1.2124355652982146 19.0924 0.0
H 47.49231352829636 16.439100000000003 0.0
O 47.77203973371873 19.092399999999998 0.0
H -0.9327093598758405 20.683500000000002 0.0
C -1.2124355652982146 23.3368 0.0
H 47.49231352829636 20.683500000000002 0.0
O 47.77203973371873 23.336799999999997 0.0
H -0.9327093598758405 24.9279 0.0
C -1.2124355652982146 27.5812 0.0
H 47.49231352829636 24.9279 0.0
H 47.49231352829636 27.4197 0.0
O 1.225252741274224 -2.8074000000000003 1.212435565298214
O 1.225252741274224 -2.8074000000000003 -1.212435565298214
H 1.225252741274224 -2.8074000000000003 -2.3124355652982143
O 3.675758223822672 -2.8074000000000003 -1.212435565298214
O 3.675758223822672 -2.8074000000000003 1.212435565298214
H 3.675758223822672 -2.8074000000000003 2.3124355652982143
H 13.477780154016463 -2.8074000000000003 0.7
H 18.378791119113362 -2.8074000000000003 -0.7
H 33.08182401440405 -2.8074000000000003 0.7
H 40.433340462049394 -2.8074000000000003 0.7
H 1.225252741274224 29.688599999999997 0.7
H 3.675758223822672 29.688599999999997 -0.7
O 11.027274671468016 29.688599999999997 1.212435565298214
O 11.027274671468016 29.688599999999997 -1.212435565298214
H 11.027274671468016 29.688599999999997 -2.3124355652982143
O 18.378791119113362 29.688599999999997 1.212435565298214
O 18.378791119113362 29.688599999999997 -1.212435565298214
H 18.378791119113362 29.688599999999997 -2.3124355652982143
O 20.82929660166181 29.688599999999997 1.212435565298214
O 20.82929660166181 29.688599999999997 -1.212435565298214
H 20.82929660166181 29.688599999999997 -2.3124355652982143
H 23.279802084210257 29.688599999999997 -0.7
H 28.180813049307154 29.688599999999997 0.7
H 42.883845944597844 29.688599999999997 0.7
O -1.8186533479473215 -1.05 -1.212435565298214
O -1.8186533479473215 -1.05 1.212435565298214
H -1.8186533479473215 -1.05 2.3124355652982143
H 48.37825751636784 6.709199999999997 -0.7
H 48.37825751636784 7.438800000000004 0.7
H -1.8186533479473206 11.683200000000001 -0.7
H -1.818653347947322 15.197999999999999 0.7
H 48.37825751636784 11.683200000000003 0.7
H 48.37825751636784 15.197999999999995 -0.7
H -1.818653347947322 19.4424 -0.7
H 48.37825751636784 19.442399999999996 0.7
O -1.818653347947322 23.686799999999998 -1.212435565298214
O -1.818653347947322 23.686799999999998 1.212435565298214
H -1.818653347947322 23.686799999999998 2.3124355652982143
H 48.37825751636784 23.686799999999995 -0.7
O -1.818653347947322 27.931199999999997 -1.212435565298214
O -1.818653347947322 27.931199999999997 1.212435565298214
H -1.818653347947322 27.931199999999997 2.3124355652982143
O 42.883845944597844 12.025800000000002 1.4
H 42.883845944597844 12.025800000000002 2.4
O 45.33435142714629 14.8554 -1.4
H 45.33435142714629 14.8554 -2.4
O 44.10909868587207 14.148 1.4
H 44.10909868587207 14.148 2.4
O 42.883845944597844 10.611 -1.4
H 42.883845944597844 10.611 -2.4
O 41.65859320332362 9.196200000000001 0.9
O 41.65859320332362 12.733200000000002 -1.4
H 41.65859320332362 12.733200000000002 -2.4
O 44.72172505650918 12.379500000000002 -0.9
O 41.65859320332362 14.148 1.4
H 41.65859320332362 14.148 2.4
O 44.72172505650918 8.135100000000001 0.9
O 40.433340462049394 14.8554 -1.4
H 40.433340462049394 14.8554 -2.4
O 40.433340462049394 16.270200000000003 1.4
H 40.433340462049394 16.270200000000003 2.4
O 44.72172505650918 16.623900000000003 0.9
O 39.20808772077517 16.977600000000002 -1.4
H 39.20808772077517 16.977600000000002 -2.4
O 40.433340462049394 19.099800000000002 1.4
H 40.433340462049394 19.099800000000002 2.4
O 37.98283497950094 19.099800000000002 -1.4
H 37.98283497950094 19.099800000000002 -2.4
O 43.49647231523495 18.746100000000002 -0.9
O 36.144955867589616 18.746100000000002 0.9
O 39.20808772077517 21.9294 -0.9
O 37.98283497950094 20.5146 1.4
H 37.98283497950094 20.5146 2.4
O 36.757582238226725 21.9294 -0.9
O 41.65859320332362 22.6368 -1.4
H 41.65859320332362 22.6368 -2.4
O 43.49647231523495 22.9905 0.9
O 40.433340462049394 20.5146 1.4
H 40.433340462049394 20.5146 2.4
O 42.271219573960735 20.8683 0.9
O 40.433340462049394 24.0516 0.9
O 45.33435142714629 10.611 1.4
H 45.33435142714629 10.611 2.4
O 42.271219573960735 16.623900000000003 -0.9
O 45.33435142714629 24.0516 -0.9
O 42.883845944597844 6.3666 -1.4
H 42.883845944597844 6.3666 -2.4
O 41.65859320332362 4.244400000000001 1.4
H 41.65859320332362 4.244400000000001 2.4
O 40.433340462049394 2.8296000000000006 -0.9
O 44.10909868587207 4.9518 0.9
O 41.0459668326865 6.0129 -0.9
O 42.883845944597844 2.8296000000000006 -0.9
O 37.370208608863834 16.623900000000003 0.9
O 37.98283497950094 24.759000000000004 1.4
H 37.98283497950094 24.759000000000004 2.4
O 36.757582238226725 26.1738 -0.9
O 39.20808772077517 26.1738 -0.9
O 39.20808772077517 12.733200000000002 1.4
H 39.20808772077517 12.733200000000002 2.4
O 37.370208608863834 12.379500000000002 -0.9
O 40.433340462049394 10.611 -1.4
H 40.433340462049394 10.611 -2.4
O 39.20808772077517 9.9036 1.4
H 39.20808772077517 9.9036 2.4
O 38.59546135013805 8.135100000000001 -0.9
O 35.5323294969525 10.611 -1.4
H 35.5323294969525 10.611 -2.4
O 34.91970312631538 12.379500000000002 0.9
O 34.307076755678274 9.9036 1.4
H 34.307076755678274 9.9036 2.4
O 31.856571273129823 9.196200000000001 -0.9
O 33.08182401440405 7.781400000000001 1.4
H 33.08182401440405 7.781400000000001 2.4
O 34.91970312631538 8.135100000000001 0.9
O 32.46919764376693 6.0129 -0.9
O 33.08182401440405 12.025800000000002 -1.4
H 33.08182401440405 12.025800000000002 -2.4
O 31.856571273129823 12.733200000000002 1.4
H 31.856571273129823 12.733200000000002 2.4
O 31.243944902492714 14.5017 -0.9
O 36.757582238226725 8.488800000000001 1.4
H 36.757582238226725 8.488800000000001 2.4
O 30.6313185318556 11.3184 -0.9
O 35.5323294969525 14.8554 1.4
H 35.5323294969525 14.8554 2.4
O 34.91970312631538 16.623900000000003 -0.9
O 33.694450385041165 14.5017 -0.9
O 37.98283497950094 10.611 1.4
H 37.98283497950094 10.611 2.4
O 34.307076755678274 4.9518 0.9
O 34.91970312631538 25.112700000000004 0.9
O 30.6313185318556 7.781400000000001 1.4
H 30.6313185318556 7.781400000000001 2.4
O 28.793439419944264 8.135100000000001 -0.9
O 30.01869216121849 6.0129 -0.9
O 32.46919764376693 16.623900000000003 0.9
O 38.59546135013805 14.5017 -0.9
O 29.406065790581376 9.9036 1.4
H 29.406065790581376 9.9036 2.4
O 26.955560308032926 9.9036 -1.4
H 26.955560308032926 9.9036 -2.4
O 28.180813049307154 12.025800000000002 1.4
H 28.180813049307154 12.025800000000002 2.4
O 25.730307566758704 10.611 -1.4
H 25.730307566758704 10.611 -2.4
O 26.342933937395813 12.379500000000002 -0.9
O 29.406065790581376 14.148 1.4
H 29.406065790581376 14.148 2.4
O 28.180813049307154 15.562800000000001 -0.9
O 26.342933937395813 14.5017 0.9
O 24.50505482548448 9.196200000000001 0.9
O 25.730307566758704 7.074000000000001 -0.9
O 26.955560308032926 5.6592 1.4
H 26.955560308032926 5.6592 2.4
O 26.342933937395813 3.8907000000000007 -0.9
O 41.65859320332362 25.466400000000004 -1.4
H 41.65859320332362 25.466400000000004 -2.4
O 39.20808772077517 1.4148 1.4
H 39.20808772077517 1.4148 2.4
O 37.98283497950094 2.8296000000000006 -0.9
O 39.20808772077517 4.9518 0.9
O 22.667175713573144 10.2573 -0.9
O 26.342933937395813 1.7685000000000002 0.9
O 36.757582238226725 0.7074 0.9
O 43.49647231523495 25.112700000000004 0.9
O 30.01869216121849 3.8907000000000007 0.9
O 24.50505482548448 16.977600000000002 -1.4
H 24.50505482548448 16.977600000000002 -2.4
O 25.730307566758704 19.099800000000002 1.4
H 25.730307566758704 19.099800000000002 2.4
O 23.279802084210257 19.099800000000002 -1.4
H 23.279802084210257 19.099800000000002 -2.4
O 25.11768119612159 20.8683 -0.9
O 21.44192297229892 18.746100000000002 0.9
O 27.56818667867004 18.746100000000002 -0.9
O 23.279802084210257 16.270200000000003 1.4
H 23.279802084210257 16.270200000000003 2.4
O 21.44192297229892 16.623900000000003 -0.9
O 22.667175713573144 14.5017 -0.9
O 22.667175713573144 20.8683 0.9
O 26.955560308032926 16.977600000000002 1.4
H 26.955560308032926 16.977600000000002 2.4
O 44.10909868587207 0.7074 0.9
O 29.406065790581376 18.392400000000002 1.4
H 29.406065790581376 18.392400000000002 2.4
O 31.856571273129823 18.392400000000002 -1.4
H 31.856571273129823 18.392400000000002 -2.4
O 30.6313185318556 19.8072 -0.9
O 33.08182401440405 19.099800000000002 1.4
H 33.08182401440405 19.099800000000002 2.4
O 32.46919764376693 20.8683 -0.9
O 29.406065790581376 21.222 1.4
H 29.406065790581376 21.222 2.4
O 28.180813049307154 23.3442 -1.4
H 28.180813049307154 23.3442 -2.4
O 30.6313185318556 23.3442 1.4
H 30.6313185318556 23.3442 2.4
O 29.406065790581376 25.466400000000004 1.4
H 29.406065790581376 25.466400000000004 2.4
O 28.180813049307154 24.759000000000004 -1.4
H 28.180813049307154 24.759000000000004 -2.4
O 31.856571273129823 25.466400000000004 -1.4
H 31.856571273129823 25.466400000000004 -2.4
O 33.08182401440405 24.759000000000004 1.4
H 33.08182401440405 24.759000000000004 2.4
O 32.46919764376693 22.9905 -0.9
O 34.307076755678274 22.6368 1.4
H 34.307076755678274 22.6368 2.4
O 26.342933937395813 25.112700000000004 0.9
O 26.955560308032926 21.222 1.4
H 26.955560308032926 21.222 2.4
O 25.730307566758704 23.3442 -1.4
H 25.730307566758704 23.3442 -2.4
O 23.89242845484737 22.9905 0.9
O 20.82929660166181 23.3442 -1.4
H 20.82929660166181 23.3442 -2.4
O 20.216670231024697 25.112700000000004 0.9
O 19.604043860387584 21.222 1.4
H 19.604043860387584 21.222 2.4
O 19.604043860387584 22.6368 -1.4
H 19.604043860387584 22.6368 -2.4
O 17.76616474847625 20.8683 -0.9
O 45.33435142714629 2.1222000000000003 -1.4
H 45.33435142714629 2.1222000000000003 -2.4
O 17.153538377839137 25.466400000000004 -1.4
H 17.153538377839137 25.466400000000004 -2.4
O 14.703032895290686 25.466400000000004 1.4
H 14.703032895290686 25.466400000000004 2.4
O 13.477780154016463 23.3442 -1.4
H 13.477780154016463 23.3442 -2.4
O 12.25252741274224 25.466400000000004 1.4
H 12.25252741274224 25.466400000000004 2.4
O 12.25252741274224 22.6368 1.4
H 12.25252741274224 22.6368 2.4
O 11.027274671468016 24.0516 -0.9
O 14.703032895290686 21.9294 0.9
O 15.928285636564912 23.3442 -1.4
H 15.928285636564912 23.3442 -2.4
O 12.25252741274224 21.222 -1.4
H 12.25252741274224 21.222 -2.4
O 11.027274671468016 19.8072 0.9
O 13.477780154016463 20.5146 1.4
H 13.477780154016463 20.5146 2.4
O 12.25252741274224 18.392400000000002 -1.4
H 12.25252741274224 18.392400000000002 -2.4
O 14.090406524653574 18.746100000000002 -0.9
O 12.865153783379352 16.623900000000003 0.9
O 23.279802084210257 24.759000000000004 -1.4
H 23.279802084210257 24.759000000000004 -2.4
O 22.05454934293603 26.1738 -0.9
O 24.50505482548448 26.1738 -0.9
O 9.802021930193792 25.466400000000004 1.4
H 9.802021930193792 25.466400000000004 2.4
O 7.351516447645344 25.466400000000004 -1.4
H 7.351516447645344 25.466400000000004 -2.4
O 8.576769188919569 24.759000000000004 -1.4
H 8.576769188919569 24.759000000000004 -2.4
O 9.18939555955668 22.9905 0.9
O 6.12626370637112 24.759000000000004 1.4
H 6.12626370637112 24.759000000000004 2.4
O 5.513637335734008 22.9905 -0.9
O 3.675758223822672 24.759000000000004 -1.4
H 3.675758223822672 24.759000000000004 -2.4
O 2.450505482548448 25.466400000000004 1.4
H 2.450505482548448 25.466400000000004 2.4
O 1.225252741274224 24.0516 -0.9
O 3.06313185318556 22.9905 0.9
O 4.901010965096896 25.466400000000004 1.4
H 4.901010965096896 25.466400000000004 2.4
O 19.604043860387584 9.9036 1.4
H 19.604043860387584 9.9036 2.4
O 18.378791119113362 7.781400000000001 -1.4
H 18.378791119113362 7.781400000000001 -2.4
O 20.216670231024697 8.135100000000001 0.9
O 17.76616474847625 6.0129 0.9
O 18.378791119113362 10.611 -1.4
H 18.378791119113362 10.611 -2.4
O 18.378791119113362 12.025800000000002 1.4
H 18.378791119113362 12.025800000000002 2.4
O 17.153538377839137 12.733200000000002 -1.4
H 17.153538377839137 12.733200000000002 -2.4
O 15.315659265927799 12.379500000000002 0.9
O 16.540912007202024 14.5017 0.9
O 17.153538377839137 9.9036 1.4
H 17.153538377839137 9.9036 2.4
O 16.540912007202024 8.135100000000001 -0.9
O 15.315659265927799 10.2573 -0.9
O 19.604043860387584 13.4406 -0.9
O 30.6313185318556 16.270200000000003 -1.4
H 30.6313185318556 16.270200000000003 -2.4
O 22.667175713573144 12.379500000000002 0.9
O 9.802021930193792 16.977600000000002 -1.4
H 9.802021930193792 16.977600000000002 -2.4
O 7.351516447645344 16.977600000000002 1.4
H 7.351516447645344 16.977600000000002 2.4
O 8.576769188919569 15.562800000000001 0.9
O 6.12626370637112 15.562800000000001 -0.9
O 8.576769188919569 19.8072 0.9
O 7.351516447645344 18.392400000000002 -1.4
H 7.351516447645344 18.392400000000002 -2.4
O 5.513637335734008 18.746100000000002 0.9
O 11.027274671468016 14.8554 1.4
H 11.027274671468016 14.8554 2.4
O 12.25252741274224 13.4406 -0.9
O 9.802021930193792 14.148 -1.4
H 9.802021930193792 14.148 -2.4
O 9.18939555955668 12.379500000000002 0.9
O 18.378791119113362 23.3442 1.4
H 18.378791119113362 23.3442 2.4
O 7.351516447645344 21.222 -1.4
H 7.351516447645344 21.222 -2.4
O 20.82929660166181 11.3184 -0.9
O 4.901010965096896 21.222 1.4
H 4.901010965096896 21.222 2.4
O 3.675758223822672 20.5146 -1.4
H 3.675758223822672 20.5146 -2.4
O 1.837879111911336 20.8683 0.9
O 3.06313185318556 18.746100000000002 0.9
O 20.216670231024697 6.0129 -0.9
O 24.50505482548448 5.6592 1.4
H 24.50505482548448 5.6592 2.4
O 23.279802084210257 3.537000000000001 -1.4
H 23.279802084210257 3.537000000000001 -2.4
O 22.05454934293603 4.244400000000001 1.4
H 22.05454934293603 4.244400000000001 2.4
O 24.50505482548448 1.4148 -1.4
H 24.50505482548448 1.4148 -2.4
O 20.82929660166181 2.1222000000000003 1.4
H 20.82929660166181 2.1222000000000003 2.4
O 19.604043860387584 0.7074 -0.9
O 23.279802084210257 2.1222000000000003 1.4
H 23.279802084210257 2.1222000000000003 2.4
O 20.216670231024697 3.8907000000000007 0.9
O 23.279802084210257 7.781400000000001 -1.4
H 23.279802084210257 7.781400000000001 -2.4
O 23.279802084210257 6.3666 -1.4
H 23.279802084210257 6.3666 -2.4
O 22.05454934293603 0.0 -1.4
H 22.05454934293603 0.0 -2.4
O 8.576769188919569 10.611 -1.4
H 8.576769188919569 10.611 -2.4
O 10.414648300830905 10.2573 0.9
O 7.351516447645344 9.196200000000001 0.9
O 18.378791119113362 3.537000000000001 -1.4
H 18.378791119113362 3.537000000000001 -2.4
O 17.76616474847625 1.7685000000000002 0.9
O 16.540912007202024 3.8907000000000007 0.9
O 6.12626370637112 10.611 -1.4
H 6.12626370637112 10.611 -2.4
O 4.288384594459784 10.2573 0.9
O 5.513637335734008 12.379500000000002 0.9
O 45.33435142714629 19.8072 0.9
O 4.288384594459784 8.135100000000001 -0.9
O 8.576769188919569 7.781400000000001 -1.4
H 8.576769188919569 7.781400000000001 -2.4
O 7.964142818282456 6.0129 0.9
O 10.414648300830905 8.135100000000001 -0.9
O 4.901010965096896 4.9518 0.9
O 34.91970312631538 20.8683 -0.9
O 9.802021930193792 4.9518 -0.9
O 17.76616474847625 18.746100000000002 0.9
O 2.450505482548448 8.488800000000001 1.4
H 2.450505482548448 8.488800000000001 2.4
O 1.837879111911336 10.2573 -0.9
O 1.225252741274224 7.074000000000001 -0.9
O 8.576769188919569 2.8296000000000006 0.9
